units(length='cm', time='s', quantity='mol', act_energy='kcal/mol')

ideal_gas(name='gas',
          elements="H D T C Ci O Oi N Ne Ar He Si S F Cl Br I X",
          species="""N2          Ar          Ne          C7H16(1)
                     O2(2)       CH(3)       C2H(4)      O(5)
                     CO(6)       CO2(7)      H2O(8)      CH2O(9)
                     CH4(10)     C2H4(11)    C3H6(12)    H2(13)
                     H(14)       OH(15)      He(16)      HO2(17)
                     H2O2(18)    CH3(19)     HCO(20)     CH3CO(21)
                     CH2CHO(22)  C2H3(23)    CH2(24)     CH2CO(25)
                     C2H2(26)    CH3O(32)    CH3O2(40)   C2H6(43)
                     C2H5(44)    C2H5O2(45)  CH3CHO(47)  C2H4O(50)
                     C2H3O3(55)  C3H5O(71)   C3H5O3(73)  NC3H7(93)
                     IC3H7(94)   C3H7O2(96)  C3H7O2(98)  S(115)
                     C3H5O(130)  C3H5O(132)  PC4H9(184)  SC4H9(185)
                     S(186)      C4H8(190)   C4H8O(216)  S(221)
                     S(222)      S(227)      S(240)      S(254)
                     C4H6O(265)  C4H8O(266)  C5H11(422)  C5H11(423)
                     C5H10(425)  S(437)      S(439)      S(444)
                     S(445)      S(449)      S(455)      S(505)
                     C7H15(680)  C7H15(681)  C7H15(683)  C7H15(684)
                     S(735)      C7H14(755)  S(764)      S(767)
                     S(782)      S(783)      S(786)      C7H14(809)
                     C6H12(810)  S(817)      S(819)      S(835)
                     S(836)      S(838)      C5H9O(849)  S(859)
                     S(868)      S(890)      S(908)      S(911)
                     S(913)      S(914)      S(943)      C5H9O(946)
                     S(949)      S(970)      S(971)      S(980)
                     S(983)      S(986)      S(1005)     S(1012)
                     S(1026)     S(1046)     S(1049)     S(1050)
                     S(1271)     S(1274)     S(1276)     C4H8(1306)
                     S(1308)     S(1326)     S(1335)     S(1336)
                     S(1337)     S(1348)     S(1349)     S(1371)
                     S(1407)     S(1470)     S(1485)     S(1523)
                     S(1577)     S(1581)     S(1730)     S(1777)
                     S(1799)     S(1809)     S(1924)     S(1932)
                     S(1933)     S(1950)     S(1958)     S(1985)
                     S(1992)     S(1993)     S(2041)     S(2042)
                     S(2060)     S(2098)     S(2123)     S(2161)
                     S(2215)     S(2327)     S(2332)     S(2334)
                     S(2343)     S(2375)     S(2402)     S(2407)
                     S(2415)     S(2450)     S(2499)     S(2538)
                     S(3149)     S(3155)     S(7941)     S(7975)
                     S(8010)     S(8122)     S(8346)     S(8363)
                     S(8373)     S(8395)     S(8398)     S(8496)
                     S(8497)     S(8498)     S(8609)     S(8642)
                     S(8851)     S(8862)     S(8920)     S(10081)
                     S(10087)    S(11286)    S(11302)    S(11833)
                     S(11844)    S(11887)    S(12748)    S(13287)
                     S(13305)    S(13310)    S(13321)    S(13357)""",
          reactions='all',
          transport='Mix',
          initial_state=state(temperature=300.0, pressure=OneAtm))

#-------------------------------------------------------------------------------
# Element data
#-------------------------------------------------------------------------------

element(symbol='Ci', atomic_mass=13.003)
element(symbol='D', atomic_mass=2.014)
element(symbol='Oi', atomic_mass=17.999)
element(symbol='T', atomic_mass=3.016)
element(symbol='X', atomic_mass=195.083)
#-------------------------------------------------------------------------------
# Species data
#-------------------------------------------------------------------------------

species(name='N2',
        atoms='N:2',
        thermo=(NASA([100.00, 1817.05],
                     [ 3.61262543E+00, -1.00892648E-03,  2.49897620E-06,
                      -1.43374896E-09,  2.58633809E-13, -1.05110286E+03,
                       2.65270528E+00]),
                NASA([1817.05, 5000.00],
                     [ 2.97592894E+00,  1.64137380E-03, -7.19704298E-07,
                       1.25374055E-10, -7.91499564E-15, -1.02585898E+03,
                       5.53740798E+00])),
        transport=gas_transport(geom='linear',
                                diam=3.621,
                                well_depth=97.53,
                                polar=1.76,
                                rot_relax=4.0))

species(name='Ar',
        atoms='Ar:1',
        thermo=(NASA([100.00, 4762.74],
                     [ 2.50000000E+00, -1.87769028E-11,  2.35957382E-14,
                      -9.62803665E-18,  1.20727680E-21, -7.45000000E+02,
                       4.36630362E+00]),
                NASA([4762.74, 5000.00],
                     [ 2.87626762E+00, -3.12580154E-04,  9.73654773E-08,
                      -1.34776059E-11,  6.99515521E-16, -1.10730235E+03,
                       1.95965953E+00])),
        transport=gas_transport(geom='atom',
                                diam=3.33,
                                well_depth=136.501))

species(name='Ne',
        atoms='Ne:1',
        thermo=(NASA([200.00, 1000.00],
                     [ 2.50000000E+00,  0.00000000E+00,  0.00000000E+00,
                       0.00000000E+00,  0.00000000E+00, -7.45375000E+02,
                       3.35532000E+00]),
                NASA([1000.00, 6000.00],
                     [ 2.50000000E+00,  0.00000000E+00,  0.00000000E+00,
                       0.00000000E+00,  0.00000000E+00, -7.45375000E+02,
                       3.35532000E+00])),
        transport=gas_transport(geom='atom',
                                diam=3.758,
                                well_depth=148.6))

species(name='C7H16(1)',
        atoms='C:7 H:16',
        thermo=(NASA([100.00, 1262.75],
                     [-2.94181528E-03,  7.69376326E-02, -3.48033705E-05,
                       1.86184391E-09,  2.01542087E-12, -2.57829331E+04,
                       3.00313064E+01]),
                NASA([1262.75, 5000.00],
                     [ 1.38380723E+01,  4.85940646E-02, -1.95472187E-05,
                       3.52831867E-09, -2.39060433E-13, -3.05142881E+04,
                      -4.48658921E+01])),
        transport=gas_transport(geom='nonlinear',
                                diam=6.366,
                                well_depth=402.997))

species(name='O2(2)',
        atoms='O:2',
        thermo=(NASA([100.00, 1087.71],
                     [ 3.53763685E+00, -1.22827511E-03,  5.36758628E-06,
                      -4.93128119E-09,  1.45955119E-12, -1.03799025E+03,
                       4.67179810E+00]),
                NASA([1087.71, 5000.00],
                     [ 3.16427277E+00,  1.69453633E-03, -8.00335204E-07,
                       1.59029939E-10, -1.14890928E-14, -1.04844563E+03,
                       6.08302729E+00])),
        transport=gas_transport(geom='linear',
                                diam=3.467,
                                well_depth=106.7))

species(name='CH(3)',
        atoms='C:1 H:1',
        thermo=(NASA([200.00, 1000.00],
                     [ 3.48976000E+00,  3.24322000E-04, -1.68998000E-06,
                       3.16284000E-09, -1.40618000E-12,  7.06126000E+04,
                       2.08428000E+00]),
                NASA([1000.00, 6000.00],
                     [ 2.52094000E+00,  1.76536000E-03, -4.61477000E-07,
                       5.92897000E-11, -3.34745000E-15,  7.09468000E+04,
                       7.40518000E+00])),
        transport=gas_transport(geom='linear',
                                diam=2.75,
                                well_depth=80.0))

species(name='C2H(4)',
        atoms='C:2 H:1',
        thermo=(NASA([200.00, 1000.00],
                     [ 2.89868000E+00,  1.32988000E-02, -2.80733000E-05,
                       2.89485000E-08, -1.07502000E-11,  6.70616000E+04,
                       6.18548000E+00]),
                NASA([1000.00, 6000.00],
                     [ 3.66270000E+00,  3.82492000E-03, -1.36633000E-06,
                       2.13455000E-10, -1.23217000E-14,  6.71684000E+04,
                       3.92206000E+00])),
        transport=gas_transport(geom='linear',
                                diam=4.1,
                                well_depth=209.001,
                                rot_relax=2.5))

species(name='O(5)',
        atoms='O:1',
        thermo=(NASA([100.00, 4762.74],
                     [ 2.50000000E+00, -1.87769028E-11,  2.35957382E-14,
                      -9.62803665E-18,  1.20727680E-21,  2.92267216E+04,
                       5.11106769E+00]),
                NASA([4762.74, 5000.00],
                     [ 2.87626762E+00, -3.12580154E-04,  9.73654773E-08,
                      -1.34776059E-11,  6.99515521E-16,  2.88644192E+04,
                       2.70442360E+00])),
        transport=gas_transport(geom='atom',
                                diam=2.75,
                                well_depth=80.0))

species(name='CO(6)',
        atoms='C:1 O:1',
        thermo=(NASA([100.00, 1669.93],
                     [ 3.59709686E+00, -1.02423974E-03,  2.83336836E-06,
                      -1.75825622E-09,  3.42588177E-13, -1.43431899E+04,
                       3.45822097E+00]),
                NASA([1669.93, 5000.00],
                     [ 2.92794761E+00,  1.81931831E-03, -8.35314334E-07,
                       1.51270400E-10, -9.88881494E-15, -1.42927037E+04,
                       6.51162022E+00])),
        transport=gas_transport(geom='linear',
                                diam=3.69,
                                well_depth=91.7,
                                polar=1.76,
                                rot_relax=4.0))

species(name='CO2(7)',
        atoms='C:1 O:2',
        thermo=(NASA([100.00, 988.19],
                     [ 3.27789791E+00,  2.75787976E-03,  7.12767589E-06,
                      -1.07852000E-08,  4.14216610E-12, -4.84756030E+04,
                       5.97857463E+00]),
                NASA([988.19, 5000.00],
                     [ 4.55073040E+00,  2.90725233E-03, -1.14641338E-06,
                       2.25793556E-10, -1.69522790E-14, -4.89860167E+04,
                      -1.45672026E+00])),
        transport=gas_transport(geom='linear',
                                diam=3.941,
                                well_depth=195.201))

species(name='H2O(8)',
        atoms='H:2 O:1',
        thermo=(NASA([100.00, 1281.44],
                     [ 3.99882008E+00, -5.54831766E-04,  2.76774416E-06,
                      -1.55665134E-09,  3.02330851E-13, -3.02745569E+04,
                      -3.08944935E-02]),
                NASA([1281.44, 5000.00],
                     [ 3.19560416E+00,  1.95239927E-03, -1.67117765E-07,
                      -2.97939568E-11,  4.45140086E-15, -3.00687024E+04,
                       4.04334241E+00])),
        transport=gas_transport(geom='nonlinear',
                                diam=2.641,
                                well_depth=809.102,
                                polar=1.76,
                                rot_relax=4.0))

species(name='CH2O(9)',
        atoms='C:1 H:2 O:1',
        thermo=(NASA([200.00, 1000.00],
                     [ 4.79372000E+00, -9.90833000E-03,  3.73220000E-05,
                      -3.79285000E-08,  1.31773000E-11, -1.43792000E+04,
                       6.02798000E-01]),
                NASA([1000.00, 6000.00],
                     [ 3.16953000E+00,  6.19321000E-03, -2.25056000E-06,
                       3.65976000E-10, -2.20149000E-14, -1.45487000E+04,
                       6.04208000E+00])),
        transport=gas_transport(geom='nonlinear',
                                diam=3.59,
                                well_depth=498.002,
                                rot_relax=2.0))

species(name='CH4(10)',
        atoms='C:1 H:4',
        thermo=(NASA([200.00, 1000.00],
                     [ 5.14911000E+00, -1.36622000E-02,  4.91454000E-05,
                      -4.84247000E-08,  1.66603000E-11, -1.02466000E+04,
                      -4.63849000E+00]),
                NASA([1000.00, 6000.00],
                     [ 1.65326000E+00,  1.00263000E-02, -3.31661000E-06,
                       5.36483000E-10, -3.14697000E-14, -1.00096000E+04,
                       9.90506000E+00])),
        transport=gas_transport(geom='nonlinear',
                                diam=3.746,
                                well_depth=141.4,
                                polar=2.6,
                                rot_relax=13.0))

species(name='C2H4(11)',
        atoms='C:2 H:4',
        thermo=(NASA([200.00, 1000.00],
                     [ 3.95920000E+00, -7.57051000E-03,  5.70990000E-05,
                      -6.91588000E-08,  2.69884000E-11,  5.08978000E+03,
                       4.09730000E+00]),
                NASA([1000.00, 6000.00],
                     [ 3.99183000E+00,  1.04834000E-02, -3.71721000E-06,
                       5.94628000E-10, -3.53630000E-14,  4.26866000E+03,
                      -2.69082000E-01])),
        transport=gas_transport(geom='nonlinear',
                                diam=3.971,
                                well_depth=280.801,
                                rot_relax=1.5))

species(name='C3H6(12)',
        atoms='C:3 H:6',
        thermo=(NASA([200.00, 1000.00],
                     [ 3.83464000E+00,  3.29079000E-03,  5.05228000E-05,
                      -6.66251000E-08,  2.63707000E-11,  7.88717000E+02,
                       7.53408000E+00]),
                NASA([1000.00, 6000.00],
                     [ 6.03870000E+00,  1.62964000E-02, -5.82131000E-06,
                       9.35937000E-10, -5.58603000E-14, -7.41715000E+02,
                      -8.43826000E+00])),
        transport=gas_transport(geom='nonlinear',
                                diam=4.982,
                                well_depth=266.801,
                                rot_relax=1.0))

species(name='H2(13)',
        atoms='H:2',
        thermo=(NASA([100.00, 1962.85],
                     [ 3.42253753E+00,  2.86648327E-04, -4.14667543E-07,
                       4.27545515E-10, -9.38112761E-14, -1.02978491E+03,
                      -3.86364800E+00]),
                NASA([1962.85, 5000.00],
                     [ 2.74217098E+00,  5.79561035E-04,  1.97192680E-07,
                      -6.41074329E-11,  4.95988421E-15, -5.52027985E+02,
                       4.14195865E-01])),
        transport=gas_transport(geom='linear',
                                diam=2.833,
                                well_depth=59.7))

species(name='H(14)',
        atoms='H:1',
        thermo=(NASA([100.00, 4762.74],
                     [ 2.50000000E+00, -1.87769028E-11,  2.35957382E-14,
                      -9.62803665E-18,  1.20727680E-21,  2.54727081E+04,
                      -4.59566260E-01]),
                NASA([4762.74, 5000.00],
                     [ 2.87626762E+00, -3.12580154E-04,  9.73654773E-08,
                      -1.34776059E-11,  6.99515521E-16,  2.51104058E+04,
                      -2.86621035E+00])),
        transport=gas_transport(geom='atom',
                                diam=2.05,
                                well_depth=145.0))

species(name='OH(15)',
        atoms='H:1 O:1',
        thermo=(NASA([100.00, 1005.26],
                     [ 3.48580083E+00,  1.33390756E-03, -4.70021880E-06,
                       5.64351291E-09, -2.06305753E-12,  3.41195681E+03,
                       1.99785890E+00]),
                NASA([1005.26, 5000.00],
                     [ 2.88223155E+00,  1.03872344E-03, -2.35672354E-07,
                       1.40277748E-11,  6.34181035E-16,  3.66956895E+03,
                       5.59065082E+00])),
        transport=gas_transport(geom='linear',
                                diam=2.75,
                                well_depth=80.0))

species(name='He(16)',
        atoms='He:1',
        thermo=(NASA([100.00, 4762.74],
                     [ 2.50000000E+00, -1.87769028E-11,  2.35957382E-14,
                      -9.62803665E-18,  1.20727680E-21, -7.45000000E+02,
                       9.14221516E-01]),
                NASA([4762.74, 5000.00],
                     [ 2.87626762E+00, -3.12580154E-04,  9.73654773E-08,
                      -1.34776059E-11,  6.99515521E-16, -1.10730235E+03,
                      -1.49242258E+00])),
        transport=gas_transport(geom='atom',
                                diam=2.576,
                                well_depth=10.2))

species(name='HO2(17)',
        atoms='H:1 O:2',
        thermo=(NASA([100.00, 923.90],
                     [ 4.02957127E+00, -2.63999181E-03,  1.52235521E-05,
                      -1.71678674E-08,  6.26771670E-12,  3.22676796E+02,
                       4.84423965E+00]),
                NASA([923.90, 5000.00],
                     [ 4.15129907E+00,  1.91151854E-03, -4.11308445E-07,
                       6.35038980E-11, -4.86453526E-15,  8.34343449E+01,
                       3.09359468E+00])),
        transport=gas_transport(geom='nonlinear',
                                diam=3.458,
                                well_depth=107.4,
                                rot_relax=1.0))

species(name='H2O2(18)',
        atoms='H:2 O:2',
        thermo=(NASA([100.00, 923.27],
                     [ 3.72867012E+00,  4.13377449E-03,  5.67497296E-06,
                      -1.01865650E-08,  4.28612035E-12, -1.76963959E+04,
                       5.35911567E+00]),
                NASA([923.27, 5000.00],
                     [ 4.95151843E+00,  3.54229706E-03, -1.01040651E-06,
                       1.61941782E-10, -1.10209389E-14, -1.81227942E+04,
                      -1.52912187E+00])),
        transport=gas_transport(geom='nonlinear',
                                diam=4.196,
                                well_depth=289.3))

species(name='CH3(19)',
        atoms='C:1 H:3',
        thermo=(NASA([200.00, 1000.00],
                     [ 3.65718000E+00,  2.12660000E-03,  5.45839000E-06,
                      -6.61810000E-09,  2.46571000E-12,  1.64227000E+04,
                       1.67354000E+00]),
                NASA([1000.00, 6000.00],
                     [ 2.97812000E+00,  5.79785000E-03, -1.97558000E-06,
                       3.07298000E-10, -1.79174000E-14,  1.65095000E+04,
                       4.72248000E+00])),
        transport=gas_transport(geom='nonlinear',
                                diam=3.8,
                                well_depth=144.001))

species(name='HCO(20)',
        atoms='C:1 H:1 O:1',
        thermo=(NASA([200.00, 1000.00],
                     [ 4.23755000E+00, -3.32075000E-03,  1.40030000E-05,
                      -1.34240000E-08,  4.37416000E-12,  3.87241000E+03,
                       3.30835000E+00]),
                NASA([1000.00, 6000.00],
                     [ 3.92002000E+00,  2.52279000E-03, -6.71004000E-07,
                       1.05616000E-10, -7.43798000E-15,  3.65343000E+03,
                       3.58077000E+00])),
        transport=gas_transport(geom='nonlinear',
                                diam=3.59,
                                well_depth=498.002))

species(name='CH3CO(21)',
        atoms='C:2 H:3 O:1',
        thermo=(NASA([200.00, 1000.00],
                     [ 4.03587000E+00,  8.77295000E-04,  3.07100000E-05,
                      -3.92476000E-08,  1.52969000E-11, -2.68207000E+03,
                       7.86177000E+00]),
                NASA([1000.00, 6000.00],
                     [ 5.31372000E+00,  9.17378000E-03, -3.32204000E-06,
                       5.39475000E-10, -3.24524000E-14, -3.64504000E+03,
                      -1.67576000E+00])),
        transport=gas_transport(geom='nonlinear',
                                diam=3.97,
                                well_depth=436.001,
                                rot_relax=2.0))

species(name='CH2CHO(22)',
        atoms='C:2 H:3 O:1',
        thermo=(NASA([200.00, 1000.00],
                     [ 2.79503000E+00,  1.01099000E-02,  1.61751000E-05,
                      -3.10303000E-08,  1.39436000E-11,  1.62945000E+02,
                       1.23647000E+01]),
                NASA([1000.00, 6000.00],
                     [ 6.53928000E+00,  7.80239000E-03, -2.76414000E-06,
                       4.42099000E-10, -2.62954000E-14, -1.18859000E+03,
                      -8.72091000E+00])),
        transport=gas_transport(geom='nonlinear',
                                diam=3.97,
                                well_depth=436.001,
                                rot_relax=2.0))

species(name='C2H3(23)',
        atoms='C:2 H:3',
        thermo=(NASA([200.00, 1000.00],
                     [ 3.36378000E+00,  2.65766000E-04,  2.79621000E-05,
                      -3.72987000E-08,  1.51590000E-11,  3.44750000E+04,
                       7.91510000E+00]),
                NASA([1000.00, 6000.00],
                     [ 4.15027000E+00,  7.54021000E-03, -2.62998000E-06,
                       4.15974000E-10, -2.45408000E-14,  3.38566000E+04,
                       1.72812000E+00])),
        transport=gas_transport(geom='nonlinear',
                                diam=4.1,
                                well_depth=209.001,
                                rot_relax=1.0))

species(name='CH2(24)',
        atoms='C:1 H:2',
        thermo=(NASA([200.00, 1000.00],
                     [ 3.71758000E+00,  1.27391000E-03,  2.17347000E-06,
                      -3.48858000E-09,  1.65209000E-12,  4.58724000E+04,
                       1.75298000E+00]),
                NASA([1000.00, 6000.00],
                     [ 3.14632000E+00,  3.03671000E-03, -9.96474000E-07,
                       1.50484000E-10, -8.57336000E-15,  4.60413000E+04,
                       4.72342000E+00])),
        transport=gas_transport(geom='nonlinear',
                                diam=3.8,
                                well_depth=144.001))

species(name='CH2CO(25)',
        atoms='C:2 H:2 O:1',
        thermo=(NASA([200.00, 1000.00],
                     [ 1.81423000E+00,  1.99009000E-02, -2.21416000E-05,
                       1.45029000E-08, -3.98877000E-12, -7.05395000E+03,
                       1.36079000E+01]),
                NASA([1000.00, 5000.00],
                     [ 5.35869000E+00,  6.95642000E-03, -2.64803000E-06,
                       4.65068000E-10, -3.08642000E-14, -7.90294000E+03,
                      -3.98526000E+00])),
        transport=gas_transport(geom='nonlinear',
                                diam=3.97,
                                well_depth=436.001,
                                rot_relax=2.0))

species(name='C2H2(26)',
        atoms='C:2 H:2',
        thermo=(NASA([200.00, 1000.00],
                     [ 8.08680000E-01,  2.33616000E-02, -3.55172000E-05,
                       2.80153000E-08, -8.50075000E-12,  2.64290000E+04,
                       1.39397000E+01]),
                NASA([1000.00, 6000.00],
                     [ 4.65878000E+00,  4.88397000E-03, -1.60829000E-06,
                       2.46975000E-10, -1.38606000E-14,  2.57594000E+04,
                      -3.99838000E+00])),
        transport=gas_transport(geom='linear',
                                diam=4.1,
                                well_depth=209.001,
                                rot_relax=2.5))

species(name='CH3O(32)',
        atoms='C:1 H:3 O:1',
        thermo=(NASA([200.00, 1000.00],
                     [ 3.71181000E+00, -2.80463000E-03,  3.76551000E-05,
                      -4.73072000E-08,  1.86588000E-11,  1.29570000E+03,
                       6.57241000E+00]),
                NASA([1000.00, 6000.00],
                     [ 4.75779000E+00,  7.44142000E-03, -2.69705000E-06,
                       4.38091000E-10, -2.63537000E-14,  3.78112000E+02,
                      -1.96680000E+00])),
        transport=gas_transport(geom='nonlinear',
                                diam=3.69,
                                well_depth=417.002,
                                dipole=1.7,
                                rot_relax=2.0))

species(name='CH3O2(40)',
        atoms='C:1 H:3 O:2',
        thermo=(NASA([200.00, 1374.00],
                     [ 1.97339000E+00,  1.53542000E-02, -6.37315000E-06,
                       3.19931000E-10,  2.82194000E-13,  2.54279000E+02,
                       1.69194000E+01]),
                NASA([1374.00, 5000.00],
                     [ 6.47970000E+00,  7.44401000E-03, -2.52349000E-06,
                       3.89577000E-10, -2.25182000E-14, -1.56285000E+03,
                      -8.19477000E+00])),
        transport=gas_transport(geom='nonlinear',
                                diam=3.69,
                                well_depth=417.0,
                                dipole=1.7,
                                rot_relax=2.0))

species(name='C2H6(43)',
        atoms='C:2 H:6',
        thermo=(NASA([200.00, 1000.00],
                     [ 4.29143000E+00, -5.50155000E-03,  5.99438000E-05,
                      -7.08466000E-08,  2.68686000E-11, -1.15222000E+04,
                       2.66679000E+00]),
                NASA([1000.00, 6000.00],
                     [ 4.04666000E+00,  1.53539000E-02, -5.47039000E-06,
                       8.77827000E-10, -5.23168000E-14, -1.24473000E+04,
                      -9.68698000E-01])),
        transport=gas_transport(geom='nonlinear',
                                diam=4.302,
                                well_depth=252.301,
                                rot_relax=1.5))

species(name='C2H5(44)',
        atoms='C:2 H:5',
        thermo=(NASA([200.00, 1387.00],
                     [ 1.32730000E+00,  1.76657000E-02, -6.14927000E-06,
                      -3.01143000E-10,  4.38618000E-13,  1.34284000E+04,
                       1.71789000E+01]),
                NASA([1387.00, 5000.00],
                     [ 5.88784000E+00,  1.03077000E-02, -3.46844000E-06,
                       5.32499000E-10, -3.06513000E-14,  1.15065000E+04,
                      -8.49652000E+00])),
        transport=gas_transport(geom='nonlinear',
                                diam=4.302,
                                well_depth=252.301,
                                rot_relax=1.5))

species(name='C2H5O2(45)',
        atoms='C:2 H:5 O:2',
        thermo=(NASA([200.00, 1389.00],
                     [ 3.90352000E+00,  2.22599000E-02, -1.01610000E-05,
                       1.71710000E-09,  1.88167000E-14, -5.09654000E+03,
                       8.98723000E+00]),
                NASA([1389.00, 5000.00],
                     [ 9.50283000E+00,  1.20430000E-02, -4.09492000E-06,
                       6.33049000E-10, -3.66134000E-14, -7.37069000E+03,
                      -2.21717000E+01])),
        transport=gas_transport(geom='nonlinear',
                                diam=4.037,
                                well_depth=395.0,
                                dipole=1.3,
                                rot_relax=1.0))

species(name='CH3CHO(47)',
        atoms='C:2 H:4 O:1',
        thermo=(NASA([200.00, 1000.00],
                     [ 4.72946000E+00, -3.19329000E-03,  4.75349000E-05,
                      -5.74586000E-08,  2.19311000E-11, -2.15729000E+04,
                       4.10302000E+00]),
                NASA([1000.00, 6000.00],
                     [ 5.40411000E+00,  1.17231000E-02, -4.22631000E-06,
                       6.83725000E-10, -4.09849000E-14, -2.25931000E+04,
                      -3.48079000E+00])),
        transport=gas_transport(geom='nonlinear',
                                diam=3.97,
                                well_depth=436.001,
                                rot_relax=2.0))

species(name='C2H4O(50)',
        atoms='C:2 H:4 O:1',
        thermo=(NASA([200.00, 1000.00],
                     [ 3.75905000E+00, -9.44122000E-03,  8.03097000E-05,
                      -1.00808000E-07,  4.00399000E-11, -7.56081000E+03,
                       7.84975000E+00]),
                NASA([1000.00, 6000.00],
                     [ 5.48876000E+00,  1.20462000E-02, -4.33369000E-06,
                       7.00283000E-10, -4.19491000E-14, -9.18043000E+03,
                      -7.07996000E+00])),
        transport=gas_transport(geom='nonlinear',
                                diam=3.97,
                                well_depth=436.0,
                                rot_relax=2.0))

species(name='C2H3O3(55)',
        atoms='C:2 H:3 O:3',
        thermo=(NASA([200.00, 1393.00],
                     [-1.29466000E+00,  4.44936000E-02, -4.26577000E-05,
                       2.07392000E-08, -3.96829000E-12, -1.18276000E+04,
                       3.60779000E+01]),
                NASA([1393.00, 5000.00],
                     [ 1.11808000E+01,  9.14479000E-03, -3.15090000E-06,
                       4.91944000E-10, -2.86639000E-14, -1.55790000E+04,
                      -2.87893000E+01])),
        transport=gas_transport(geom='nonlinear',
                                diam=5.934,
                                well_depth=446.453))

species(name='C3H5O(71)',
        atoms='C:3 H:5 O:1',
        thermo=(NASA([200.00, 1387.00],
                     [ 1.13382000E+00,  3.25095000E-02, -2.10425000E-05,
                       6.64421000E-09, -8.12619000E-13, -6.04868000E+03,
                       2.17159000E+01]),
                NASA([1387.00, 5000.00],
                     [ 1.09524000E+01,  1.11459000E-02, -3.86263000E-06,
                       6.05089000E-10, -3.53293000E-14, -9.60834000E+03,
                      -3.15623000E+01])),
        transport=gas_transport(geom='nonlinear',
                                diam=5.364,
                                well_depth=385.407))

species(name='C3H5O3(73)',
        atoms='C:3 H:5 O:3',