units(length='cm', time='s', quantity='mol', act_energy='kcal/mol')

ideal_gas(name='gas',
          elements="H D T C Ci O Oi N Ne Ar He Si S F Cl Br I X",
          species="""Ar      Ne      N2      O2(3)   CO2(4)  CO(5)""",
          transport='Mix',
          initial_state=state(temperature=300.0, pressure=OneAtm))

ideal_interface(name='surface1',
                elements="H D T C Ci O Oi N Ne Ar He Si S F Cl Br I X",
                species="""X(1)       OX(2)      OCX(14)    CO2X2(24)
                          COX2(33)   CO2X3(37)""",
                site_density=2.72e-09,
                phases="gas",
          reactions='all',
                initial_state=state(temperature=300.0, pressure=OneAtm))

#-------------------------------------------------------------------------------
# Element data
#-------------------------------------------------------------------------------

element(symbol='Ci', atomic_mass=13.003)
element(symbol='D', atomic_mass=2.014)
element(symbol='Oi', atomic_mass=17.999)
element(symbol='T', atomic_mass=3.016)
element(symbol='X', atomic_mass=195.083)
#-------------------------------------------------------------------------------
# Species data
#-------------------------------------------------------------------------------

species(name='Ar',
        atoms='Ar:1',
        thermo=(NASA([200.00, 1000.00],
                     [ 2.50000000E+00,  0.00000000E+00,  0.00000000E+00,
                       0.00000000E+00,  0.00000000E+00, -7.45375000E+02,
                       4.37967000E+00]),
                NASA([1000.00, 6000.00],
                     [ 2.50000000E+00,  0.00000000E+00,  0.00000000E+00,
                       0.00000000E+00,  0.00000000E+00, -7.45375000E+02,
                       4.37967000E+00])),
        transport=gas_transport(geom='atom',
                                diam=3.33,
                                well_depth=136.501))

species(name='Ne',
        atoms='Ne:1',
        thermo=(NASA([200.00, 1000.00],
                     [ 2.50000000E+00,  0.00000000E+00,  0.00000000E+00,
                       0.00000000E+00,  0.00000000E+00, -7.45375000E+02,
                       3.35532000E+00]),
                NASA([1000.00, 6000.00],
                     [ 2.50000000E+00,  0.00000000E+00,  0.00000000E+00,
                       0.00000000E+00,  0.00000000E+00, -7.45375000E+02,
                       3.35532000E+00])),
        transport=gas_transport(geom='atom',
                                diam=3.758,
                                well_depth=148.6))

species(name='N2',
        atoms='N:2',
        thermo=(NASA([200.00, 1000.00],
                     [ 3.53101000E+00, -1.23661000E-04, -5.02999000E-07,
                       2.43531000E-09, -1.40881000E-12, -1.04698000E+03,
                       2.96747000E+00]),
                NASA([1000.00, 6000.00],
                     [ 2.95258000E+00,  1.39690000E-03, -4.92632000E-07,
                       7.86010000E-11, -4.60755000E-15, -9.23949000E+02,
                       5.87189000E+00])),
        transport=gas_transport(geom='linear',
                                diam=3.621,
                                well_depth=97.53,
                                polar=1.76,
                                rot_relax=4.0))

species(name='O2(3)',
        atoms='O:2',
        thermo=(NASA([100.00, 1074.55],
                     [ 3.53732306E+00, -1.21572374E-03,  5.31622715E-06,
                      -4.89449486E-09,  1.45847491E-12, -1.03858852E+03,
                       4.68367956E+00]),
                NASA([1074.55, 5000.00],
                     [ 3.15381732E+00,  1.67804947E-03, -7.69977495E-07,
                       1.51276220E-10, -1.08783036E-14, -1.04081576E+03,
                       6.16757806E+00])),
        transport=gas_transport(geom='linear',
                                diam=3.467,
                                well_depth=106.7))

species(name='CO2(4)',
        atoms='C:1 O:2',
        thermo=(NASA([100.00, 978.23],
                     [ 3.28083527E+00,  2.50196842E-03,  8.08151784E-06,
                      -1.20504991E-08,  4.66519201E-12, -4.84008299E+04,
                       6.00084740E+00]),
                NASA([978.23, 5000.00],
                     [ 4.67430878E+00,  2.60956959E-03, -9.85648902E-07,
                       1.95704154E-10, -1.49828179E-14, -4.89512313E+04,
                      -2.11096873E+00])),
        transport=gas_transport(geom='linear',
                                diam=3.941,
                                well_depth=195.201))

species(name='CO(5)',
        atoms='C:1 O:1',
        thermo=(NASA([100.00, 1571.63],
                     [ 3.56838045E+00, -8.52130174E-04,  2.48918996E-06,
                      -1.56332160E-09,  3.13598612E-13, -1.42842550E+04,
                       3.57912002E+00]),
                NASA([1571.63, 5000.00],
                     [ 2.91304980E+00,  1.64660253E-03, -6.88627283E-07,
                       1.21040018E-10, -7.84038409E-15, -1.41808757E+04,
                       6.71055590E+00])),
        transport=gas_transport(geom='linear',
                                diam=3.69,
                                well_depth=91.7,
                                polar=1.76,
                                rot_relax=4.0))

species(name='X(1)',
        atoms='X:1',
        thermo=(NASA([100.00, 1554.81],
                     [ 7.10134229E-03, -4.25614410E-05,  8.98519485E-08,
                      -7.80181004E-11,  2.32461701E-14, -8.76099090E-01,
                      -3.11209254E-02]),
                NASA([1554.81, 5000.00],
                     [ 1.60301482E-01, -2.52237676E-04,  1.14182424E-07,
                      -1.21474113E-11,  3.85808919E-16, -7.08109168E+01,
                      -9.09536736E-01])))

species(name='OX(2)',
        atoms='O:1 X:1',
        thermo=(NASA([100.00, 888.26],
                     [-7.59010605E-01,  1.89868186E-02, -3.82472548E-05,
                       3.43556678E-08, -1.13973560E-11, -1.46217852E+04,
                       1.76016526E+00]),
                NASA([888.26, 5000.00],
                     [ 1.89893001E+00,  2.03296518E-03, -1.19977223E-06,
                       2.32682221E-10, -1.53509598E-14, -1.48973287E+04,
                      -9.64100628E+00])))

species(name='OCX(14)',
        atoms='C:1 O:1 X:1',
        thermo=(NASA([100.00, 891.31],
                     [-1.38220492E+00,  3.75313467E-02, -8.29789341E-05,
                       8.09745725E-08, -2.85491668E-11, -3.29210525E+04,
                       4.35470172E+00]),
                NASA([891.31, 5000.00],
                     [ 1.38106885E+00,  8.05690339E-03, -4.64291970E-06,
                       8.91129769E-10, -5.90013911E-14, -3.27354457E+04,
                      -4.85408694E+00])))

species(name='CO2X2(24)',
        atoms='C:1 O:2 X:2',
        thermo=(NASA([100.00, 924.21],
                     [ 3.12765009E+00, -5.99444178E-04,  3.64363002E-05,
                      -5.17518715E-08,  2.10864263E-11, -7.50642447E+04,
                      -1.62512067E+01]),
                NASA([924.21, 5000.00],
                     [ 8.66340598E+00, -1.93828097E-03,  1.89712813E-06,
                      -3.55963405E-10,  2.05496848E-14, -7.70535555E+04,
                      -4.77481635E+01])),
        size=2.0)

species(name='COX2(33)',
        atoms='C:1 O:1 X:2',
        thermo=(NASA([100.00, 907.89],
                     [ 3.29367568E+00, -4.89814370E-04,  2.05985081E-05,
                      -3.00759791E-08,  1.25798719E-11, -3.34981919E+04,
                      -1.73752598E+01]),
                NASA([907.89, 5000.00],
                     [ 6.63765609E+00, -2.14205554E-03,  1.71649720E-06,
                      -3.41188188E-10,  2.20462757E-14, -3.46444829E+04,
                      -3.61538600E+01])),
        size=2.0)

species(name='CO2X3(37)',
        atoms='C:1 O:2 X:3',
        thermo=(NASA([100.00, 924.21],
                     [ 3.12765009E+00, -5.99444178E-04,  3.64363002E-05,
                      -5.17518715E-08,  2.10864263E-11, -7.29573886E+04,
                      -1.62512067E+01]),
                NASA([924.21, 5000.00],
                     [ 8.66340598E+00, -1.93828097E-03,  1.89712813E-06,
                      -3.55963405E-10,  2.05496848E-14, -7.49466994E+04,
                      -4.77481635E+01])),
        size=3.0)

#-------------------------------------------------------------------------------
# Reaction data
#-------------------------------------------------------------------------------
#  Reaction index: Chemkin #1; RMG #6
#  Library reaction: Surface/CPOX_Pt/Deutschmann2006_adjusted
#  Flux pairs: OX(2), O2(3); OX(2), X(1); OX(2), X(1);

# surface1 Reaction 1
surface_reaction('OX(2) + OX(2) <=> X(1) + X(1) + O2(3)', [3.700000e+21, 0.0, 66.611])
#  Reaction index: Chemkin #2; RMG #7
#  Library reaction: Surface/CPOX_Pt/Deutschmann2006_adjusted
#  Flux pairs: OCX(14), X(1); OCX(14), CO(5);

# surface1 Reaction 2
surface_reaction('OCX(14) <=> X(1) + CO(5)', [1.000000e+11, 0.0, 40.511])
#  Reaction index: Chemkin #3; RMG #50
#  Template reaction: Surface_Adsorption_Dissociative_Double
#  Flux pairs: CO2(4), OCX(14); X(1), OX(2); X(1), OX(2);
#  Estimated using template [Adsorbate;VacantSite1;VacantSite2] for rate rule [CO2;VacantSite1;VacantSite2]
#  Euclidian distance = 2.0
#  Multiplied by reaction path degeneracy 2.0
#  family: Surface_Adsorption_Dissociative_Double

# surface1 Reaction 3
surface_reaction('X(1) + X(1) + CO2(4) <=> OX(2) + OCX(14)', stick(2.000000e-02, 0.0, 10.0))
#  Reaction index: Chemkin #4; RMG #59
#  Template reaction: Surface_DoubleBond_to_Bidentate
#  Flux pairs: X(1), COX2(33); OCX(14), COX2(33);
#  Exact match found for rate rule [Combined;VacantSite]
#  Euclidian distance = 0
#  family: Surface_DoubleBond_to_Bidentate

# surface1 Reaction 4
surface_reaction('X(1) + OCX(14) <=> COX2(33)', [4.270000e+19, 0.549, 1.0])
#  Reaction index: Chemkin #5; RMG #49
#  Template reaction: Surface_Adsorption_Bidentate
#  Flux pairs: X(1), CO2X2(24); X(1), CO2X2(24); CO2(4), CO2X2(24);
#  Exact match found for rate rule [Adsorbate;VacantSite1;VacantSite2]
#  Euclidian distance = 0
#  Multiplied by reaction path degeneracy 2.0
#  family: Surface_Adsorption_Bidentate

# surface1 Reaction 5
surface_reaction('X(1) + X(1) + CO2(4) <=> CO2X2(24)', stick(2.000000e-01, 0.0, 0.0))
#  Reaction index: Chemkin #6; RMG #60
#  Template reaction: Surface_Bidentate_Dissociation
#  Flux pairs: CO2X2(24), OCX(14); CO2X2(24), OX(2);
#  Exact match found for rate rule [Combined]
#  Euclidian distance = 0
#  family: Surface_Bidentate_Dissociation
#  Ea raised from 0.0 to 228.4 kJ/mol to match endothermicity of reaction.

# surface1 Reaction 6
surface_reaction('CO2X2(24) <=> OX(2) + OCX(14)', [8.960000e+10, 0.422, 54.598])
#  Reaction index: Chemkin #7; RMG #66
#  Template reaction: Surface_Bidentate_Dissociation
#  Flux pairs: CO2X3(37), COX2(33); CO2X3(37), OX(2);
#  Exact match found for rate rule [Combined]
#  Euclidian distance = 0
#  Multiplied by reaction path degeneracy 2.0
#  family: Surface_Bidentate_Dissociation
#  Ea raised from 0.0 to 206.4 kJ/mol to match endothermicity of reaction.

# surface1 Reaction 7
surface_reaction('CO2X3(37) <=> OX(2) + COX2(33)', [1.792000e+11, 0.422, 49.326])
#  Reaction index: Chemkin #8; RMG #81
#  Template reaction: Surface_DoubleBond_to_Bidentate
#  Flux pairs: X(1), CO2X3(37); CO2X2(24), CO2X3(37);
#  Exact match found for rate rule [Combined;VacantSite]
#  Euclidian distance = 0
#  family: Surface_DoubleBond_to_Bidentate
#  Ea raised from 17.5 to 17.5 kJ/mol to match endothermicity of reaction.

# surface1 Reaction 8
surface_reaction('X(1) + CO2X2(24) <=> CO2X3(37)', [4.270000e+19, 0.549, 4.188])
#  Reaction index: Chemkin #9; RMG #97
#  Template reaction: Surface_Abstraction
#  Flux pairs: OCX(14), CO2X2(24); CO2X3(37), COX2(33);
#  Estimated using template [C=*;Donating] for rate rule [C=*;*R-O]
#  Euclidian distance = 1.0
#  Multiplied by reaction path degeneracy 2.0
#  family: Surface_Abstraction

# surface1 Reaction 9
surface_reaction('OCX(14) + CO2X3(37) <=> COX2(33) + CO2X2(24)', [2.780000e+21, 0.101, 4.541])
