!---------------------------------------------------------------------------
!  
!---------------------------------------------------------------------------
ELEMENTS
O H C N Ar F Br
END
SPECIES
AR              N2              H               O               OH              
HO2             H2              H2O             H2O2            
O2              C               CH              CH2             
CH2*            CH3             CH4             HCO             
CH2O            CH3O            CH2OH           CH3OH           CO              
CO2             C2H             C2H2            C2H3            
C2H4            C2H5            C2H6            HCCO            
HCCOH           CH2CO           CH3CO           CH3CHO          C3H3            
pC3H4           aC3H4           cC3H4           aC3H5           
CH3CCH2         C3H6            nC3H7           iC3H7           
C3H8            C2H3CHO         C4H2            C4H4            C4H6            
C4H612          C4H7            C4H81           H2C4O           
C5H4O           C5H4OH          C5H5            C5H6            
C6H2            C6H3            l-C6H4          C6H5O           
C6H5OH          C2O             CH3CHCH         CH2CHCO         
CH3CHOCH2       CH3CH2CHO       CH3COCH3        CH2CHO          CH2OCH          
CH2OCH2         H2CC            tC4H9           iC4H5           
c-C4H5          C4H6O23         nC4H3           iC4H3           iC4H8           
iC4H10          nC4H5           C4H5-2          C5H5O(1,3)      
C2H3CHOCH2      CH3CHCHCHO      iC4H7           iC4H9           
CH2CHCHCHO      C4H6-2          CH3CHCHCO       o-C6H4          C4H82           
pC4H9           sC4H9           C4H4O           C4H10           
C6H6            C6H5            C6H5CH3         C6H5CH2         
C6H5CH2OH       C6H5CHO         C6H5CO          C6H4O2          
C4H6O25         C5H5O(2,4)      C5H5OH          lC5H7           C6H5C2H         
OC6H4CH3        HOC6H4CH3       C6H4CH3         C2H5OH          
CH3CHOH         C2H4OH          CH3CH2O         HOC2H4O2        HF              
F               F2              CH3F            CH2F2           
CHF3            CF4             CH2F            CHF2            
CF3             CHF             CF2             CF              
CF3O            CF2:O           CHF:O           CF:O            CH3-CH2F        
CH3-CHF2        CH3-CF3         CH2F-CH2F       CH2F-CHF2       
CH2F-CF3        CHF2-CHF2       CHF2-CF3        CF3-CF3         
CH3-CHF         CH3-CF2         CH2F-CH2        CH2F-CHF        
CH2F-CF2        CHF2-CH2        CHF2-CHF        CHF2-CF2        CF3-CH2         
CF3-CHF         CF3-CF2         CH2:CHF         CH2:CF2         
CHF:CHF[Z]      CHF:CF2         CF2:CF2         CH2:CF          
CHF:CH[Z]       CHF:CF[Z]       CF2:CH          CF2:CF          C2HF            
C2F2            CHFCO           CF2CO           CFCO            
CF3COF          CF3CO           CF3CHO          BR2             HBR             
BR              BRO             BROH            CH3BR           
CH2BR           C2H5BR          C2H3BR          CF3BR           
CF3CHCH2        CF3CCH2         CF3CCH          CF3COCH3        
CF3CHBRCH2      BTP             CF3CBRCH        
END
!---------------------------------------------------------------------------
!  
!---------------------------------------------------------------------------
THERMO ALL
   300.000  1000.000  5000.000
AR                      Ar  1               G   300.000  5000.000  1000.000    1
 2.50000000e+00 0.00000000e+00 0.00000000e+00 0.00000000e+00 0.00000000e+00    2
-7.45375000e+02 4.36600000e+00 2.50000000e+00 0.00000000e+00 0.00000000e+00    3
 0.00000000e+00 0.00000000e+00-7.45375000e+02 4.36600000e+00                   4
N2                      N   2               G   300.000  5000.000  1000.000    1
 2.92664000e+00 1.48797680e-03-5.68476000e-07 1.00970380e-10-6.75335100e-15    2
-9.22797700e+02 5.98052800e+00 3.29867700e+00 1.40824040e-03-3.96322200e-06    3
 5.64151500e-09-2.44485400e-12-1.02089990e+03 3.95037200e+00                   4
H                       H   1               G   200.000  3500.000  1000.000    1
 2.50000001e+00-2.30842973e-11 1.61561948e-14-4.73515235e-18 4.98197357e-22    2
 2.54736599e+04-4.46682914e-01 2.50000000e+00 7.05332819e-13-1.99591964e-15    3
 2.30081632e-18-9.27732332e-22 2.54736599e+04-4.46682853e-01                   4
O                       O   1               G   200.000  3500.000  1000.000    1
 2.56942078e+00-8.59741137e-05 4.19484589e-08-1.00177799e-11 1.22833691e-15    2
 2.92175791e+04 4.78433864e+00 3.16826710e+00-3.27931884e-03 6.64306396e-06    3
-6.12806624e-09 2.11265971e-12 2.91222592e+04 2.05193346e+00                   4
OH                      H   1O   1          G   200.000  6000.000  1000.000    1
 2.86472886e+00 1.05650448e-03-2.59082758e-07 3.05218674e-11-1.33195876e-15    2
 3.71885774e+03 5.70164073e+00 4.12530561e+00-3.22544939e-03 6.52764691e-06    3
-5.79853643e-09 2.06237379e-12 3.38153812e+03-6.90432960e-01                   4
HO2                     H   1O   2          G   200.000  3500.000  1000.000    1
 4.01721090e+00 2.23982013e-03-6.33658150e-07 1.14246370e-10-1.07908535e-14    2
 1.11856713e+02 3.78510215e+00 4.30179801e+00-4.74912051e-03 2.11582891e-05    3
-2.42763894e-08 9.29225124e-12 2.94808040e+02 3.71666245e+00                   4
H2                      H   2               G   200.000  3500.000  1000.000    1
 3.33727920e+00-4.94024731e-05 4.99456778e-07-1.79566394e-10 2.00255376e-14    2
-9.50158922e+02-3.20502331e+00 2.34433112e+00 7.98052075e-03-1.94781510e-05    3
 2.01572094e-08-7.37611761e-12-9.17935173e+02 6.83010238e-01                   4
H2O                     H   2O   1          G   200.000  3500.000  1000.000    1
 3.03399249e+00 2.17691804e-03-1.64072518e-07-9.70419870e-11 1.68200992e-14    2
-3.00042971e+04 4.96677010e+00 4.19864056e+00-2.03643410e-03 6.52040211e-06    3
-5.48797062e-09 1.77197817e-12-3.02937267e+04-8.49032208e-01                   4
H2O2                    H   2O   2          G   200.000  3500.000  1000.000    1
 4.16500285e+00 4.90831694e-03-1.90139225e-06 3.71185986e-10-2.87908305e-14    2
-1.78617877e+04 2.91615662e+00 4.27611269e+00-5.42822417e-04 1.67335701e-05    3
-2.15770813e-08 8.62454363e-12-1.77025821e+04 3.43505074e+00                   4
O2                      O   2               G   200.000  3500.000  1000.000    1
 3.28253784e+00 1.48308754e-03-7.57966669e-07 2.09470555e-10-2.16717794e-14    2
-1.08845772e+03 5.45323129e+00 3.78245636e+00-2.99673416e-03 9.84730201e-06    3
-9.68129509e-09 3.24372837e-12-1.06394356e+03 3.65767573e+00                   4
C                       C   1               G   200.000  3500.000  1000.000    1
 2.49266888e+00 4.79889284e-05-7.24335020e-08 3.74291029e-11-4.87277893e-15    2
 8.54512953e+04 4.80150373e+00 2.55423955e+00-3.21537724e-04 7.33792245e-07    3
-7.32234889e-10 2.66521446e-13 8.54438832e+04 4.53130848e+00                   4
CH                      C   1H   1          G   200.000  3500.000  1000.000    1
 2.87846473e+00 9.70913681e-04 1.44445655e-07-1.30687849e-10 1.76079383e-14    2
 7.10124364e+04 5.48497999e+00 3.48981665e+00 3.23835541e-04-1.68899065e-06    3
 3.16217327e-09-1.40609067e-12 7.07972934e+04 2.08401108e+00                   4
CH2                     C   1H   2          G   200.000  3500.000  1000.000    1
 2.87410113e+00 3.65639292e-03-1.40894597e-06 2.60179549e-10-1.87727567e-14    2
 4.62636040e+04 6.17119324e+00 3.76267867e+00 9.68872143e-04 2.79489841e-06    3
-3.85091153e-09 1.68741719e-12 4.60040401e+04 1.56253185e+00                   4
CH2*                    C   1H   2          G   200.000  3500.000  1000.000    1
 2.29203842e+00 4.65588637e-03-2.01191947e-06 4.17906000e-10-3.39716365e-14    2
 5.09259997e+04 8.62650169e+00 4.19860411e+00-2.36661419e-03 8.23296220e-06    3
-6.68815981e-09 1.94314737e-12 5.04968163e+04-7.69118967e-01                   4
CH3                     C   1H   3          G   200.000  3500.000  1000.000    1
 2.28571772e+00 7.23990037e-03-2.98714348e-06 5.95684644e-10-4.67154394e-14    2
 1.67755843e+04 8.48007179e+00 3.67359040e+00 2.01095175e-03 5.73021856e-06    3
-6.87117425e-09 2.54385734e-12 1.64449988e+04 1.60456433e+00                   4
CH4                     C   1H   4          G   200.000  3500.000  1000.000    1
 7.48514950e-02 1.33909467e-02-5.73285809e-06 1.22292535e-09-1.01815230e-13    2
-9.46834459e+03 1.84373180e+01 5.14987613e+00-1.36709788e-02 4.91800599e-05    3
-4.84743026e-08 1.66693956e-11-1.02466476e+04-4.64130376e+00                   4
HCO                     C   1H   1O   1     G   200.000  3500.000  1000.000    1
 2.77217438e+00 4.95695526e-03-2.48445613e-06 5.89161778e-10-5.33508711e-14    2
 4.01191815e+03 9.79834492e+00 4.22118584e+00-3.24392532e-03 1.37799446e-05    3
-1.33144093e-08 4.33768865e-12 3.83956496e+03 3.39437243e+00                   4
CH2O                    C   1H   2O   1     G   200.000  3500.000  1000.000    1
 1.76069008e+00 9.20000082e-03-4.42258813e-06 1.00641212e-09-8.83855640e-14    2
-1.39958323e+04 1.36563230e+01 4.79372315e+00-9.90833369e-03 3.73220008e-05    3
-3.79285261e-08 1.31772652e-11-1.43089567e+04 6.02812900e-01                   4
CH3O                    C   1H   3O   1     G   200.000  6000.000  1000.000    1
 4.75779238e+00 7.44142474e-03-2.69705176e-06 4.38090504e-10-2.63537098e-14    2
 3.78111940e+02-1.96680028e+00 3.71180502e+00-2.80463306e-03 3.76550971e-05    3
-4.73072089e-08 1.86588420e-11 1.29569760e+03 6.57240864e+00                   4
CH2OH                   C   1H   3O   1     G   200.000  6000.000  1000.000    1
 5.09314370e+00 5.94761260e-03-2.06497460e-06 3.23008173e-10-1.88125902e-14    2
-4.03409640e+03-1.84691493e+00 4.47834367e+00-1.35070310e-03 2.78484980e-05    3
-3.64869060e-08 1.47907450e-11-3.50072890e+03 3.30913500e+00                   4
CH3OH                   C   1H   4O   1     G   200.000  3500.000  1000.000    1
 1.78970791e+00 1.40938292e-02-6.36500835e-06 1.38171085e-09-1.17060220e-13    2
-2.53748747e+04 1.45023623e+01 5.71539582e+00-1.52309129e-02 6.52441155e-05    3
-7.10806889e-08 2.61352698e-11-2.56427656e+04-1.50409823e+00                   4
CO                      C   1O   1          G   200.000  3500.000  1000.000    1
 2.71518561e+00 2.06252743e-03-9.98825771e-07 2.30053008e-10-2.03647716e-14    2
-1.41518724e+04 7.81868772e+00 3.57953347e+00-6.10353680e-04 1.01681433e-06    3
 9.07005884e-10-9.04424499e-13-1.43440860e+04 3.50840928e+00                   4
CO2                     C   1O   2          G   200.000  3500.000  1000.000    1
 3.85746029e+00 4.41437026e-03-2.21481404e-06 5.23490188e-10-4.72084164e-14    2
-4.87591660e+04 2.27163806e+00 2.35677352e+00 8.98459677e-03-7.12356269e-06    3
 2.45919022e-09-1.43699548e-13-4.83719697e+04 9.90105222e+00                   4
C2H                     C   2H   1          G   200.000  3500.000  1000.000    1
 3.16780652e+00 4.75221902e-03-1.83787077e-06 3.04190252e-10-1.77232770e-14    2
 6.71210650e+04 6.63589475e+00 2.88965733e+00 1.34099611e-02-2.84769501e-05    3
 2.94791045e-08-1.09331511e-11 6.68393932e+04 6.22296438e+00                   4
C2H2                    C   2H   2          G   200.000  3500.000  1000.000    1
 4.14756964e+00 5.96166664e-03-2.37294852e-06 4.67412171e-10-3.61235213e-14    2
 2.59359992e+04-1.23028121e+00 8.08681094e-01 2.33615629e-02-3.55171815e-05    3
 2.80152437e-08-8.50072974e-12 2.64289807e+04 1.39397051e+01                   4
C2H3                    C   2H   3          G   200.000  3500.000  1000.000    1
 3.01672400e+00 1.03302292e-02-4.68082349e-06 1.01763288e-09-8.62607041e-14    2
 3.46128739e+04 7.78732378e+00 3.21246645e+00 1.51479162e-03 2.59209412e-05    3
-3.57657847e-08 1.47150873e-11 3.48598468e+04 8.51054025e+00                   4
C2H4                    C   2H   4          G   200.000  3500.000  1000.000    1
 2.03611116e+00 1.46454151e-02-6.71077915e-06 1.47222923e-09-1.25706061e-13    2
 4.93988614e+03 1.03053693e+01 3.95920148e+00-7.57052247e-03 5.70990292e-05    3
-6.91588753e-08 2.69884373e-11 5.08977593e+03 4.09733096e+00                   4
C2H5                    C   2H   5          G   200.000  3500.000  1000.000    1
 1.95465642e+00 1.73972722e-02-7.98206668e-06 1.75217689e-09-1.49641576e-13    2
 1.28575200e+04 1.34624343e+01 4.30646568e+00-4.18658892e-03 4.97142807e-05    3
-5.99126606e-08 2.30509004e-11 1.28416265e+04 4.70720924e+00                   4
C2H6                    C   2H   6          G   200.000  3500.000  1000.000    1
 1.07188150e+00 2.16852677e-02-1.00256067e-05 2.21412001e-09-1.90002890e-13    2
-1.14263932e+04 1.51156107e+01 4.29142492e+00-5.50154270e-03 5.99438288e-05    3
-7.08466285e-08 2.68685771e-11-1.15222055e+04 2.66682316e+00                   4
HCCO                    C   2H   1O   1     G   300.000  4000.000  1000.000    1
 5.62820580e+00 4.08534010e-03-1.59345470e-06 2.86260520e-10-1.94078320e-14    2
 1.93272150e+04-3.93025950e+00 2.25172140e+00 1.76550210e-02-2.37291010e-05    3
 1.72757590e-08-5.06648110e-12 2.00594490e+04 1.24904170e+01                   4
HCCOH                   C   2H   2O   1     G   300.000  5000.000  1000.000    1
 5.92382910e+00 6.79236000e-03-2.56585640e-06 4.49878410e-10-2.99401010e-14    2
 7.26462600e+03-7.60177420e+00 1.24237330e+00 3.10722010e-02-5.08668640e-05    3
 4.31371310e-08-1.40145940e-11 8.03161430e+03 1.38743190e+01                   4
CH2CO                   C   2H   2O   1     G   200.000  3500.000  1000.000    1
 4.51129732e+00 9.00359745e-03-4.16939635e-06 9.23345882e-10-7.94838201e-14    2
-7.77850000e+03 6.32247205e-01 2.13583630e+00 1.81188721e-02-1.73947474e-05    3
 9.34397568e-09-2.01457615e-12-7.27000000e+03 1.22156480e+01                   4
CH3CO                   C   2H   3O   1     G   200.000  6000.000  1000.000    1
 5.94477310e+00 7.86672050e-03-2.88658820e-06 4.72708750e-10-2.85998610e-14    2
-3.78730750e+03-5.01367510e+00 4.16342570e+00-2.32616100e-04 3.42678200e-05    3
-4.41052270e-08 1.72756120e-11-2.65745290e+03 7.34682800e+00                   4
CH3CHO                  C   2H   4O   1     G   200.000  6000.000  1000.000    1
 5.40411080e+00 1.17230590e-02-4.22631370e-06 6.83724510e-10-4.09848630e-14    2
-2.25931220e+04-3.48079170e+00 4.72945950e+00-3.19328580e-03 4.75349210e-05    3
-5.74586110e-08 2.19311120e-11-2.15728780e+04 4.10301590e+00                   4
C3H3                    C   3H   3          G   200.000  6000.000  1000.000    1
 7.14221880e+00 7.61902005e-03-2.67459950e-06 4.24914801e-10-2.51475415e-14    2
 3.89087427e+04-1.25848436e+01 1.35110927e+00 3.27411223e-02-4.73827135e-05    3
 3.76309808e-08-1.18540923e-11 4.01057783e+04 1.52058924e+01                   4
pC3H4                   C   3H   4          G   200.000  6000.000  1000.000    1
 6.02524000e+00 1.13365420e-02-4.02233910e-06 6.43760630e-10-3.82996350e-14    2
 1.96209420e+04-8.60437850e+00 2.68038690e+00 1.57996510e-02 2.50705960e-06    3
-1.36576230e-08 6.61542850e-12 2.08023740e+04 9.87693510e+00                   4
aC3H4                   C   3H   4          G   200.000  6000.000  1000.000    1
 6.31687220e+00 1.11337280e-02-3.96293780e-06 6.35642380e-10-3.78755400e-14    2
 2.01174950e+04-1.09957660e+01 2.61304450e+00 1.21225750e-02 1.85398800e-05    3
-3.45251490e-08 1.53350790e-11 2.15415670e+04 1.02261390e+01                   4
cC3H4                   C   3H   4          G   300.000  5000.000  1000.000    1
 6.69999310e+00 1.03573720e-02-3.45511670e-06 5.06529490e-10-2.66822760e-14    2
 3.01990510e+04-1.33787700e+01-2.46210470e-02 2.31972150e-02-1.84743570e-06    3
-1.59275930e-08 8.68461550e-12 3.23341370e+04 2.27297620e+01                   4
aC3H5                   C   3H   5          G   300.000  3000.000  1000.000    1
 6.50078770e+00 1.43247310e-02-5.67816320e-06 1.10808010e-09-9.03638870e-14    2
 1.74824490e+04-1.12430500e+01 1.36318350e+00 1.98138210e-02 1.24970600e-05    3
-3.33555550e-08 1.58465710e-11 1.92456290e+04 1.71732140e+01                   4
CH3CCH2                 C   3H   5          G   300.000  3000.000  1000.000    1
 5.42555280e+00 1.55110720e-02-5.66783500e-06 7.92243880e-10-1.68780340e-14    2
 2.78430270e+04-3.35271840e+00 1.73292090e+00 2.23946200e-02-5.14906110e-06    3
-6.75964660e-09 3.82532110e-12 2.90404980e+04 1.65688780e+01                   4
C3H6                    C   3H   6          G   300.000  5000.000  1000.000    1
 6.73225700e+00 1.49083400e-02-4.94989900e-06 7.21202200e-10-3.76620400e-14    2
-9.23570300e+02-1.33133500e+01 1.49330700e+00 2.09251800e-02 4.48679400e-06    3
-1.66891200e-08 7.15814600e-12 1.07482600e+03 1.61453400e+01                   4
nC3H7                   C   3H   7          G   300.000  3000.000  1000.000    1
 7.70974790e+00 1.60314850e-02-5.27202380e-06 7.58883520e-10-3.88627190e-14    2
 7.97622360e+03-1.55152970e+01 1.04911730e+00 2.60089730e-02 2.35425160e-06    3
-1.95951320e-08 9.37202070e-12 1.03123460e+04 2.11360340e+01                   4
iC3H7                   C   3H   7          G   300.000  3000.000  1000.000    1
 6.51927410e+00 1.72201040e-02-5.73642170e-06 8.41307320e-10-4.45659130e-14    2
 7.32271930e+03-9.08302150e+00 1.44491990e+00 2.09991120e-02 7.70362220e-06    3
-1.84762530e-08 7.12829620e-12 9.42237240e+03 2.01163170e+01                   4
C3H8                    C   3H   8          G   300.000  3000.000  1000.000    1
 7.52441520e+00 1.88982820e-02-6.29210410e-06 9.21614570e-10-4.86844780e-14    2
-1.65643940e+04-1.78383750e+01 9.28510930e-01 2.64605660e-02 6.03324460e-06    3
-2.19149530e-08 9.49615440e-12-1.40579070e+04 1.92255380e+01                   4
C2H3CHO                 C   3H   4O   1     G   300.000  5000.000  1000.000    1
 5.81118680e+00 1.71142560e-02-7.48341610e-06 1.42522490e-09-9.17468410e-14    2
-1.07840540e+04-4.85880040e+00 1.27134980e+00 2.62310540e-02-9.29123050e-06    3
-4.78372720e-09 3.34805430e-12-9.33573440e+03 1.94980770e+01                   4
C4H2                    C   4H   2          G   300.000  3000.000  1000.000    1
 9.15763280e+00 5.54305180e-03-1.35916040e-06 1.87800750e-11 2.31895360e-14    2
 5.25880390e+04-2.37114600e+01 1.05439780e+00 4.16269600e-02-6.58717840e-05    3
 5.32570750e-08-1.66831620e-11 5.41852110e+04 1.48665910e+01                   4
C4H4                    C   4H   4          G   300.000  5000.000  1000.000    1
 7.25396010e+00 1.39140940e-02-5.29322140e-06 8.34804500e-10-3.51978820e-14    2
 3.17660160e+04-1.26295210e+01 5.88570480e-01 3.65466850e-02-3.41069680e-05    3
 1.66526190e-08-3.00646230e-12 3.33594920e+04 2.06578810e+01                   4
C4H6                    C   4H   6          G   300.000  3000.000  1000.000    1
 8.86731340e+00 1.49186700e-02-3.15487160e-06-4.18413300e-10 1.57612580e-13    2
 9.13385160e+03-2.33281710e+01 1.12844650e-01 3.43690220e-02-1.11073920e-05    3
-9.21066600e-09 6.20651790e-12 1.18022700e+04 2.30899960e+01                   4
C4H612                  C   4H   6          G   300.000  3000.000  1000.000    1
 1.78155700e+01-4.25750200e-03 1.05118500e-05-4.47384400e-09 5.84813800e-13    2
 1.26734200e+04-6.98266200e+01 1.02346700e+00 3.49591900e-02-2.20090500e-05    3
 6.94227200e-09-7.87918700e-13 1.81179900e+04 1.97506600e+01                   4
C4H7                    C   4H   7          G   300.000  5000.000  1000.000    1
 7.01348350e+00 2.26345580e-02-9.25454700e-06 1.68079270e-09-1.04086170e-13    2
 2.09550080e+04-8.88930800e+00 7.44494320e-01 3.96788570e-02-2.28980860e-05    3
 2.13529730e-09 2.30963750e-12 2.26533280e+04 2.34378780e+01                   4
C4H81                   C   4H   8          G   300.000  5000.000  1000.000    1
 2.05358410e+00 3.43505070e-02-1.58831970e-05 3.30896620e-09-2.53610450e-13    2
-2.13972310e+03 1.55432010e+01 1.18113800e+00 3.08533800e-02 5.08652470e-06    3
-2.46548880e-08 1.11101930e-11-1.79040040e+03 2.10624690e+01                   4
H2C4O                   C   4H   2O   1     G   300.000  5000.000  1000.000    1
 8.42921830e+00 1.05027010e-02-4.20668360e-06 7.11849020e-10-3.57966020e-14    2
 2.29078070e+04-1.65119970e+01 3.18119000e+00 2.98407520e-02-3.28324090e-05    3
 2.06318130e-08-5.42005980e-12 2.41255760e+04 9.42101000e+00                   4
C5H4O                   C   5H   4O   1     G   200.000  6000.000  1000.000    1
 1.00806824e+01 1.61143465e-02-5.83314509e-06 9.46759320e-10-5.68972206e-14    2
 1.94364771e+03-2.94521623e+01 2.64576497e-01 3.34873827e-02 1.67738470e-06    3
-2.96207455e-08 1.54431476e-11 5.11159287e+03 2.35409513e+01                   4
C5H4OH                  C   5H   5O   1     G   200.000  6000.000  1000.000    1
 1.33741248e+01 1.51996469e-02-5.45685046e-06 8.80944866e-10-5.27493258e-14    2
 2.20358027e+03-4.59569069e+01-1.28398054e+00 4.90298511e-02-1.35844414e-05    3
-2.92983743e-08 1.90820619e-11 6.37364803e+03 3.08073591e+01                   4
C5H5                    C   5H   5          G   300.000  2000.000  1000.000    1
 7.47439380e+00 1.60127330e-02-6.48231480e-09-3.58197030e-09 9.23650710e-13    2
 2.80860000e+04-1.61330000e+01 9.83498220e-01 3.36514760e-02-1.10541810e-07    3
-3.67433940e-08 2.31411840e-11 2.96260000e+04 1.65855190e+01                   4
C5H6                    C   5H   6          G   200.000  6000.000  1000.000    1
 9.97578480e+00 1.89055430e-02-6.84114610e-06 1.10993400e-09-6.66802360e-14    2
 1.10816930e+04-3.22094540e+01 8.61089570e-01 1.48040310e-02 7.21088950e-05    3
-1.13380550e-07 4.86899720e-11 1.48017550e+04 2.13534530e+01                   4
C6H2                    C   6H   2          G   300.000  3000.000  1000.000    1
 1.28939180e+01 7.91450680e-03-2.40272400e-06 2.43401490e-10 3.13832460e-15    2
 7.98324060e+04-4.07719960e+01 4.50999740e-01 6.74751920e-02-1.18099250e-04    3
 1.03676320e-07-3.48510390e-11 8.21730620e+04 1.77041240e+01                   4
C6H3                    C   6H   3          G   300.000  3000.000  1000.000    1
 5.81883430e+00 2.79334080e-02-1.78254270e-05 5.37025360e-09-6.17076270e-13    2
 8.51882500e+04-9.21478270e-01 1.17906190e+00 5.55473600e-02-7.30761680e-05    3
 5.20767360e-08-1.50469640e-11 8.56473120e+04 1.91791990e+01                   4
l-C6H4                  C   6H   4          G   300.000  3000.000  1000.000    1
 1.27151820e+01 1.38396620e-02-4.37654400e-06 3.15416360e-10 4.66190260e-14    2
 5.70311480e+04-3.94646000e+01 2.95902250e-01 5.80533180e-02-6.77667560e-05    3
 4.33767620e-08-1.14188640e-11 6.00013710e+04 2.23189700e+01                   4
C6H5O                   C   6H   5O   1     G   200.000  6000.000  1000.000    1
 1.37221720e+01 1.74688771e-02-6.35504520e-06 1.03492308e-09-6.23410504e-14    2
 2.87274751e+02-4.88181680e+01-4.66204455e-01 4.13443975e-02 1.32412991e-05    3
-5.72872769e-08 2.89763707e-11 4.77858391e+03 2.76990274e+01                   4
C6H5OH                  C   6H   6O   1     G   300.000  5000.000  1000.000    1
 1.49120730e+01 1.83781350e-02-6.19831280e-06 9.19832210e-10-4.92095650e-14    2
-1.83751990e+04-5.59241030e+01-1.69565390e+00 5.22712990e-02-7.20240500e-06    3
-3.58596030e-08 2.04490730e-11-1.32841210e+04 3.25421600e+01                   4
C2O                     C   2O   1          G   200.000  6000.000  1000.000    1
 5.15127220e+00 2.37267220e-03-7.61359710e-07 1.17064150e-10-7.02578040e-15    2
 3.32418880e+04-2.21831350e+00 2.86486100e+00 1.19902160e-02-1.83624480e-05    3
 1.57697390e-08-5.38974520e-12 3.37499320e+04 8.88677720e+00                   4
CH3CHCH                 C   3H   5          G   300.000  3000.000  1000.000    1
 5.37252810e+00 1.57805090e-02-5.99228500e-06 9.30896640e-10-3.65509660e-14    2
 2.96147600e+04-3.41864780e+00 9.13729310e-01 2.64323430e-02-1.17589500e-05    3
-2.30356780e-09 2.77154880e-12 3.09168670e+04 1.99892690e+01                   4
CH2CHCO                 C   3H   3O   1     G   200.000  6000.000  1000.000    1
 6.95842227e+00 1.07193211e-02-3.85218494e-06 6.22009064e-10-3.72401640e-14    2
 5.64826498e+03-1.14745786e+01 3.21169467e+00 1.18422105e-02 1.67462582e-05    3
-3.06947176e-08 1.33048816e-11 7.12815750e+03 1.00881663e+01                   4
CH3CHOCH2               C   3H   6O   1     G   298.150  3000.000  1000.000    1
 8.69005580e+00 1.60209870e-02-5.39717530e-06 7.99415420e-10-4.26563660e-14    2
-1.54206910e+04-2.24850160e+01 4.87338360e-01 2.85196900e-02 3.00961620e-06    3
-2.26526420e-08 1.07067280e-11-1.25564340e+04 2.26052700e+01                   4
CH3CH2CHO               C   3H   6O   1     G   300.000  5000.000  1000.000    1
 6.26374100e+00 1.99762600e-02-7.61951470e-06 1.16871180e-09-4.19599930e-14    2
-2.58859530e+04-5.77864980e+00 2.72556760e+00 2.32360050e-02 2.97406560e-06    3
-1.66134150e-08 7.42501030e-12-2.45567110e+04 1.41662770e+01                   4
CH3COCH3                C   3H   6O   1     G   200.000  6000.000  1000.000    1
 7.29759910e+00 1.75662070e-02-6.31704560e-06 1.02030860e-09-6.10940160e-14    2
-2.98176800e+04-1.27569810e+01 5.55579430e+00-2.83654280e-03 7.05689450e-05    3
-8.78104880e-08 3.40282660e-11-2.81133370e+04 2.32266000e+00                   4
CH2CHO                  C   2H   3O   1     G   300.000  5000.000  1000.000    1
 5.97566990e+00 8.13059140e-03-2.74362450e-06 4.07030410e-10-2.17601710e-14    2
-9.69500000e+02-5.03208790e+00 3.40906240e+00 1.07385740e-02 1.89149250e-06    3
-7.15858310e-09 2.86738510e-12 6.20000000e+01 9.57145350e+00                   4
CH2OCH                  C   2H   3O   1     G   298.150  3000.000  500.000     1
 4.49940540e+00 1.15526250e-02-4.81441290e-06 8.92349190e-10-5.68705850e-14    2
 1.74739630e+04 3.39255150e-01-3.83960840e-01 2.38790380e-02-1.24675870e-05    3
-1.76864110e-09 2.81424380e-12 1.88362030e+04 2.57417450e+01                   4
CH2OCH2                 C   2H   4O   1     G   298.150  3000.000  1000.000    1
 5.48876410e+00 1.20461900e-02-4.33369310e-06 7.00283110e-10-4.19490880e-14    2
-9.18042510e+03-7.07996050e+00 3.75905320e+00-9.44121800e-03 8.03097210e-05    3
-1.00807880e-07 4.00399210e-11-7.56081430e+03 7.84974750e+00                   4
H2CC                    C   2H   2          G   200.000  6000.000  1000.000    1
 4.27803400e+00 4.75628040e-03-1.63010090e-06 2.54628060e-10-1.48863790e-14    2
 4.83166880e+04 6.40237010e-01 3.28154830e+00 6.97647910e-03-2.38552440e-06    3
-1.21044320e-09 9.81895450e-13 4.86217940e+04 5.92039100e+00                   4
tC4H9                   C   4H   9          G   300.000  3000.000  1000.000    1
 7.66072610e+00 2.38794140e-02-8.08903530e-06 1.20575210e-09-6.50098140e-14    2
 1.62076230e+03-1.48002810e+01 9.61675530e-01 2.57358560e-02 1.56090330e-05    3
-2.66565190e-08 8.94180100e-12 4.65644120e+03 2.48053660e+01                   4
iC4H5                   C   4H   5          G   300.000  5000.000  1000.000    1
 6.96460290e+00 1.82743330e-02-7.81337350e-06 1.52921540e-09-1.09204930e-13    2
 3.47250980e+04-1.06493210e+01 1.13081050e-01 4.09506150e-02-3.54135810e-05    3
 1.55309690e-08-2.33551220e-12 3.63833710e+04 2.36924570e+01                   4
c-C4H5                  C   4H   5          G   300.000  3000.000  1000.000    1
 6.74671550e+00 1.72830000e-02-6.51685790e-06 9.89175740e-10-3.46049080e-14    2
 3.28083590e+04-1.29128800e+01-2.63975930e+00 4.15491570e-02-2.19209540e-05    3
-4.65590140e-09 6.13488900e-12 3.53738280e+04 3.57017970e+01                   4
C4H6O23                 C   4H   6O   1     G   200.000  5000.000  1000.000    1
 8.60658242e+00 2.08310051e-02-8.42229481e-06 1.56717640e-09-1.09391202e-13    2
-1.32392815e+04-2.32464750e+01 2.67053463e+00 4.92586420e-03 8.86967406e-05    3
-1.26219194e-07 5.23991321e-11-1.02787872e+04 1.45722395e+01                   4
nC4H3                   C   4H   3          G   300.000  5000.000  1000.000    1
 7.80457160e+00 1.07123640e-02-4.19391240e-06 7.04462770e-10-3.62713260e-14    2
 6.29878050e+04-1.41297410e+01 8.16676860e-01 3.87162010e-02-4.80456510e-05    3
 3.20668080e-08-8.56282150e-12 6.44557540e+04 1.97405030e+01                   4
iC4H3                   C   4H   3          G   300.000  5000.000  1000.000    1
 7.65385480e+00 1.12040550e-02-4.64013420e-06 8.67866390e-10-5.74305620e-14    2
 5.79543630e+04-1.17564760e+01 3.72214820e+00 2.59575430e-02-2.63563430e-05    3
 1.55089200e-08-3.80405650e-12 5.88371210e+04 7.56372450e+00                   4
iC4H8                   C   4H   8          G   300.000  5000.000  1000.000    1
 4.46094700e+00 2.96114870e-02-1.30771290e-05 2.65719340e-09-2.01347130e-13    2
-5.00667580e+03 1.06715490e+00 2.64714050e+00 2.59029570e-02 8.19853540e-06    3
-2.21932590e-08 8.89585800e-12-4.03730690e+03 1.26763880e+01                   4
iC4H10                  C   4H   10         G   300.000  3000.000  1000.000    1
 1.08461690e+01 2.33383890e-02-7.78339620e-06 1.13938070e-09-5.99182890e-14    2
-2.16698540e+04-3.58705730e+01 5.41094890e-01 3.78603010e-02 5.54598040e-06    3
-3.05001100e-08 1.40333570e-11-1.79776440e+04 2.11509350e+01                   4
nC4H5                   C   4H   5          G   300.000  5000.000  1000.000    1
 7.40872910e+00 1.77527480e-02-7.56015060e-06 1.42037950e-09-9.11001820e-14    2
 4.04387620e+04-1.31500270e+01 2.26112900e-01 3.67423710e-02-2.21204740e-05    3
 1.43901380e-09 2.64358090e-12 4.24284100e+04 2.40664010e+01                   4
C4H5-2                  C   4H   5          G   300.000  3000.000  1000.000    1
 1.45381710e+01-8.56770560e-03 2.35595240e-05-1.36763790e-08 2.44369270e-12    2
 3.32590950e+04-4.53694970e+01 2.96962800e+00 2.44422450e-02-9.12514240e-06    3
-4.24668710e-18 1.63047280e-21 3.55033160e+04 1.20360510e+01                   4
C5H5O(1,3)              C   5H   5O   1     G   300.000  3000.000  1000.000    1
 9.24314400e+00 2.22012570e-02-9.31059460e-06 1.71552220e-09-1.06139690e-13    2
 1.59083940e+03-2.40877380e+01-2.95669840e+00 5.58518920e-02-3.72416360e-05    3